5HT2c_ligand6
  SciTegic09262214453D

 51 54  0  0  0  0            999 V2000
    0.5992   -0.6634   -0.6895 C   0  0
   -0.6571   -1.3063   -0.8676 C   0  0
   -0.7298   -2.7451   -0.7831 C   0  0
    0.4708   -3.4951   -0.5476 C   0  0
    1.7011   -2.8143   -0.4007 C   0  0
    1.7618   -1.4484   -0.4621 C   0  0
    3.1021   -1.1614   -0.2578 N   0  0
    3.8581   -2.3458   -0.1015 C   0  0
    2.9197   -3.3913   -0.1916 C   0  0
   -1.9272   -3.3619   -0.9311 O   0  0
   -2.0616   -4.7860   -0.9328 C   0  0
   -1.7076   -0.4753   -1.1269 O   0  0
   -3.0459   -0.9243   -1.3047 C   0  0
   -3.9650    0.2282   -1.7654 C   0  0
   -4.0851    1.3696   -0.8377 N   0  0
   -4.6499    0.9758    0.4677 C   0  0
   -4.7731    2.1702    1.4232 C   0  0
   -5.5797    3.3113    0.7969 C   0  0
   -4.9798    3.6810   -0.5573 C   0  0
   -4.8656    2.4527   -1.4698 C   0  0
    3.6245    0.1808   -0.2227 C   0  0
    3.1092    1.0630   -0.8815 O   0  0
    4.7789    0.5165    0.6349 C   0  0
    5.9121   -0.5383    1.3539 S   0  0
    6.8314    0.6880    2.1085 C   0  0
    6.2409    1.9300    1.7966 C   0  0
    5.1004    1.8384    0.9754 C   0  0
    8.2295    0.7160    3.1036 Cl  0  0
    0.6759    0.4145   -0.7311 H   0  0
    0.4499   -4.5709   -0.4799 H   0  0
    4.9286   -2.4200    0.0488 H   0  0
    3.1348   -4.4490   -0.1083 H   0  0
   -1.7293   -5.2004    0.0232 H   0  0
   -1.4861   -5.2129   -1.7520 H   0  0
   -3.1161   -5.0457   -1.0733 H   0  0
   -3.3985   -1.3880   -0.3885 H   0  0
   -3.0573   -1.6783   -2.0868 H   0  0
   -3.5932    0.5889   -2.7212 H   0  0
   -4.9562   -0.1716   -1.9623 H   0  0
   -5.6322    0.5190    0.3139 H   0  0
   -4.0080    0.2242    0.9375 H   0  0
   -5.2318    1.8614    2.3617 H   0  0
   -3.7770    2.5302    1.6823 H   0  0
   -5.5959    4.1740    1.4576 H   0  0
   -6.6172    3.0046    0.6646 H   0  0
   -3.9904    4.1127   -0.4104 H   0  0
   -5.5836    4.4516   -1.0380 H   0  0
   -4.3959    2.7404   -2.4101 H   0  0
   -5.8668    2.0937   -1.7148 H   0  0
    6.6175    2.8850    2.1452 H   0  0
    4.5460    2.7074    0.6445 H   0  0
  1  2  2  0
  1 29  1  0
  2  3  1  0
  2 12  1  0
  3  4  2  0
  3 10  1  0
  4  5  1  0
  4 30  1  0
  5  6  2  0
  5  9  1  0
  6  1  1  0
  6  7  1  0
  7  8  1  0
  7 21  1  0
  8  9  2  0
  8 31  1  0
  9 32  1  0
 10 11  1  0
 11 33  1  0
 11 34  1  0
 11 35  1  0
 12 13  1  0
 13 14  1  0
 13 36  1  0
 13 37  1  0
 14 15  1  0
 14 38  1  0
 14 39  1  0
 15 16  1  0
 15 20  1  0
 16 17  1  0
 16 40  1  0
 16 41  1  0
 17 18  1  0
 17 42  1  0
 17 43  1  0
 18 19  1  0
 18 44  1  0
 18 45  1  0
 19 20  1  0
 19 46  1  0
 19 47  1  0
 20 48  1  0
 20 49  1  0
 21 22  2  0
 21 23  1  0
 23 24  1  0
 23 27  2  0
 24 25  1  0
 25 26  2  0
 25 28  1  0
 26 27  1  0
 26 50  1  0
 27 51  1  0
M  END
> <Name>
5HT2c_ligand6

> <AbsoluteEnergy>
115.457

> <ConfNumber>
25

> <FitValue>
5.99928

> <HBA_5>
1

> <HBA_5_atom>
12

> <HBA_5_fit>
0.999966

> <HBA_6>
1

> <HBA_6_atom>
22

> <HBA_6_fit>
0.999925

> <HYDROPHOBAromatic_2>
1

> <HYDROPHOBAromatic_2_atom>
26

> <HYDROPHOBAromatic_2_fit>
0.999886

> <HYDROPHOBIC_3>
1

> <HYDROPHOBIC_3_atom>
9

> <HYDROPHOBIC_3_fit>
0.99967

> <HYDROPHOBIC_4>
1

> <HYDROPHOBIC_4_atom>
11

> <HYDROPHOBIC_4_fit>
0.999853

> <MapNumber>
1

> <MappedAtoms>
15,-4.09,1.367,-0.832,1.7,PosIonizable_1.11
26,6.02,1.26,1.58,1.7,HYDROPHOBAromatic_2.11
9,2.88,-2.86,-0.22,1.7,HYDROPHOBIC_3.11
11,-2.08,-4.78,-0.94,1.7,HYDROPHOBIC_4.11
12,-1.714,-0.478,-1.133,1.7,HBA_5.11
12,-1.16,2.48,-1.34,2.3,HBA_5.21
22,3.104,1.058,-0.898,1.7,HBA_6.11
22,4.22,3.86,-0.78,2.3,HBA_6.21

> <MappedFeatures>
PosIonizable_1,HYDROPHOBAromatic_2,HYDROPHOBIC_3,HYDROPHOBIC_4,HBA_5,HBA_6

> <MappedLocations>
HBA_5.11,HBA_5.21,HBA_6.11,HBA_6.21,HYDROPHOBAromatic_2.11,HYDROPHOBIC_3.11,HYDROPHOBIC_4.11,PosIonizable_1.11

> <MappingID>
1

> <MaxOmitFeat>
0

> <OBJECTID>
9223372595203866626

> <Pharmprint>
'111111'

> <Pharmtype>
6

> <PosIonizable_1>
1

> <PosIonizable_1_atom>
15

> <PosIonizable_1_fit>
0.999978

> <Principal>
2

> <RelativeEnergy>
6.35201

$$$$
5HT2c_ligand1
  SciTegic09262214453D

 76 80  0  0  0  0            999 V2000
    0.6752   -0.9585   -0.6022 C   0  0
    1.6804   -1.8947   -0.2719 C   0  0
    1.4906   -3.2804   -0.2794 C   0  0
    0.1969   -3.7304   -0.6459 C   0  0
   -0.8589   -2.8337   -0.9893 C   0  0
   -0.6090   -1.4250   -0.9666 C   0  0
    2.7133   -4.0688    0.1091 C   0  0
    3.7488   -2.9542    0.3665 C   0  0
    3.0803   -1.6527    0.1330 N   0  0
    3.7096   -0.3802    0.2826 C   0  0
    3.0744    0.6260    0.0671 O   0  0
    5.0451   -0.3240    0.6673 N   0  0
    5.8239    0.8135    0.8824 C   0  0
    5.2809    2.1024    1.0926 C   0  0
    6.1184    3.2107    1.2928 C   0  0
    7.5176    3.0622    1.3011 C   0  0
    8.0753    1.7788    1.1057 C   0  0
    7.2308    0.6715    0.9002 C   0  0
    8.3840    4.2656    1.5172 C   0  0
    9.7778    1.5288    1.1108 Cl  0  0
   -2.0870   -3.2823   -1.3341 O   0  0
   -2.4164   -4.6735   -1.3673 C   0  0
   -1.5124   -0.4635   -1.2703 O   0  0
   -2.8591   -0.7410   -1.6660 C   0  0
   -3.5902    0.5803   -1.9509 C   0  0
   -3.5335    1.5236   -0.8203 N   0  0
   -4.2920    1.0630    0.3592 C   0  0
   -4.1358    2.0283    1.5450 C   0  0
   -4.5345    3.4623    1.1542 C   0  0
   -3.7475    3.8960   -0.0928 C   0  0
   -3.9228    2.8837   -1.2356 C   0  0
   -4.3941    4.4324    2.2617 N   0  0
   -5.4917    4.3612    3.2430 C   0  0
   -5.4563    5.5634    4.2004 C   0  0
   -4.0938    5.6920    4.8905 C   0  0
   -2.9659    5.6949    3.8524 C   0  0
   -3.0692    4.4853    2.9102 C   0  0
    0.8639    0.1038   -0.5832 H   0  0
    0.0316   -4.7973   -0.6575 H   0  0
    2.5208   -4.6565    0.9953 H   0  0
    3.0149   -4.7268   -0.6933 H   0  0
    4.5937   -3.0585   -0.2999 H   0  0
    4.1169   -3.0029    1.3818 H   0  0
    5.5203   -1.1964    0.7975 H   0  0
    4.2185    2.2870    1.1127 H   0  0
    5.6753    4.1847    1.4425 H   0  0
    7.6737   -0.3048    0.7519 H   0  0
    9.0425    4.4219    0.6611 H   0  0
    7.7978    5.1768    1.6513 H   0  0
    9.0005    4.1376    2.4084 H   0  0
   -2.2929   -5.1136   -0.3768 H   0  0
   -3.4589   -4.7784   -1.6680 H   0  0
   -1.7893   -5.1919   -2.0943 H   0  0
   -3.3641   -1.3037   -0.8801 H   0  0
   -2.8486   -1.3475   -2.5732 H   0  0
   -4.6307    0.3851   -2.2154 H   0  0
   -3.1290    1.0395   -2.8268 H   0  0
   -5.3459    0.9590    0.0970 H   0  0
   -3.9417    0.0793    0.6681 H   0  0
   -4.7414    1.6791    2.3815 H   0  0
   -3.0984    2.0004    1.8788 H   0  0
   -5.5850    3.4404    0.8585 H   0  0
   -2.6846    3.9855    0.1299 H   0  0
   -4.0787    4.8814   -0.4222 H   0  0
   -4.9597    2.8775   -1.5754 H   0  0
   -3.3120    3.1959   -2.0836 H   0  0
   -6.4518    4.3450    2.7254 H   0  0
   -5.4175    3.4297    3.8068 H   0  0
   -6.2448    5.4687    4.9479 H   0  0
   -5.6672    6.4776    3.6430 H   0  0
   -3.9547    4.8552    5.5763 H   0  0
   -4.0577    6.6006    5.4926 H   0  0
   -1.9982    5.6947    4.3544 H   0  0
   -3.0108    6.6156    3.2686 H   0  0
   -2.2820    4.5485    2.1604 H   0  0
   -2.9013    3.5676    3.4757 H   0  0
  1  2  2  0
  1 38  1  0
  2  3  1  0
  2  9  1  0
  3  4  2  0
  3  7  1  0
  4  5  1  0
  4 39  1  0
  5  6  2  0
  5 21  1  0
  6  1  1  0
  6 23  1  0
  7  8  1  0
  7 40  1  0
  7 41  1  0
  8  9  1  0
  8 42  1  0
  8 43  1  0
  9 10  1  0
 10 11  2  0
 10 12  1  0
 12 13  1  0
 12 44  1  0
 13 14  2  0
 13 18  1  0
 14 15  1  0
 14 45  1  0
 15 16  2  0
 15 46  1  0
 16 17  1  0
 16 19  1  0
 17 18  2  0
 17 20  1  0
 18 47  1  0
 19 48  1  0
 19 49  1  0
 19 50  1  0
 21 22  1  0
 22 51  1  0
 22 52  1  0
 22 53  1  0
 23 24  1  0
 24 25  1  0
 24 54  1  0
 24 55  1  0
 25 26  1  0
 25 56  1  0
 25 57  1  0
 26 27  1  0
 26 31  1  0
 27 28  1  0
 27 58  1  0
 27 59  1  0
 28 29  1  0
 28 60  1  0
 28 61  1  0
 29 30  1  0
 29 32  1  0
 29 62  1  0
 30 31  1  0
 30 63  1  0
 30 64  1  0
 31 65  1  0
 31 66  1  0
 32 33  1  0
 32 37  1  0
 33 34  1  0
 33 67  1  0
 33 68  1  0
 34 35  1  0
 34 69  1  0
 34 70  1  0
 35 36  1  0
 35 71  1  0
 35 72  1  0
 36 37  1  0
 36 73  1  0
 36 74  1  0
 37 75  1  0
 37 76  1  0
M  END
> <Name>
5HT2c_ligand1

> <AbsoluteEnergy>
68.7818

> <ConfNumber>
12

> <FitValue>
4.20945

> <HBA_5>
1

> <HBA_5_atom>
23

> <HBA_5_fit>
0.958697

> <HBA_6>
1

> <HBA_6_atom>
11

> <HBA_6_fit>
0.0457923

> <HYDROPHOBAromatic_2>
1

> <HYDROPHOBAromatic_2_atom>
.

> <HYDROPHOBAromatic_2_fit>
0.620644

> <HYDROPHOBIC_3>
1

> <HYDROPHOBIC_3_atom>
22

> <HYDROPHOBIC_3_fit>
0.806257

> <HYDROPHOBIC_4>
1

> <HYDROPHOBIC_4_atom>
22

> <HYDROPHOBIC_4_fit>
0.893734

> <MapNumber>
1

> <MappedAtoms>
26,-4.09,1.367,-0.832,1.7,PosIonizable_1.11
22,2.88,-2.86,-0.22,1.7,HYDROPHOBIC_3.11
22,-2.08,-4.78,-0.94,1.7,HYDROPHOBIC_4.11
23,-1.714,-0.478,-1.133,1.7,HBA_5.11
23,-1.16,2.48,-1.34,2.3,HBA_5.21
11,3.104,1.058,-0.898,1.7,HBA_6.11
11,4.22,3.86,-0.78,2.3,HBA_6.21

> <MappedFeatures>
PosIonizable_1,HYDROPHOBAromatic_2,HYDROPHOBIC_3,HYDROPHOBIC_4,HBA_5,HBA_6

> <MappedLocations>
HBA_5.11,HBA_5.21,HBA_6.11,HBA_6.21,HYDROPHOBAromatic_2.11,HYDROPHOBIC_3.11,HYDROPHOBIC_4.11,PosIonizable_1.11

> <MappingID>
1

> <MaxOmitFeat>
0

> <OBJECTID>
9223372599498833922

> <Pharmprint>
'111111'

> <Pharmtype>
6

> <PosIonizable_1>
1

> <PosIonizable_1_atom>
26

> <PosIonizable_1_fit>
0.884329

> <Principal>
2

> <RelativeEnergy>
1.70092

$$$$
5HT2c_ligand4
  SciTegic09262214453D

 59 62  0  0  0  0            999 V2000
    0.0910   -0.8176   -0.9951 C   0  0
   -1.1499   -1.4585   -1.1952 C   0  0
   -1.2297   -2.8820   -1.0730 C   0  0
   -0.0485   -3.6167   -0.7480 C   0  0
    1.2069   -2.9867   -0.5382 C   0  0
    1.2231   -1.5967   -0.6741 C   0  0
    2.6021   -1.1502   -0.4142 N   0  0
    3.4432   -2.3219   -0.0864 C   0  0
    2.5477   -3.5779   -0.1860 C   0  0
   -2.1773   -0.6309   -1.4899 O   0  0
   -3.5234   -1.0746   -1.6794 C   0  0
   -4.4156    0.1405   -1.9740 C   0  0
   -4.2935    1.1764   -0.9408 N   0  0
   -4.6844    0.8059    0.4086 C   0  0
   -4.7374    2.1263    1.1615 C   0  0
   -5.3697    3.0472    0.1175 C   0  0
   -4.9685    2.4375   -1.2285 C   0  0
   -2.4190   -3.4945   -1.2669 O   0  0
   -2.5780   -4.9122   -1.1634 C   0  0
    3.0614    0.1932   -0.4711 C   0  0
    2.3328    1.1081   -0.7777 O   0  0
    4.5179    0.4402   -0.1389 C   0  0
    4.7612    0.5418    1.3793 C   0  0
    6.1311    1.0833    1.6997 C   0  0
    7.2341    0.2068    1.8769 C   0  0
    8.5020    0.7255    2.1977 C   0  0
    8.6893    2.1072    2.3350 C   0  0
    7.6118    2.9833    2.1469 C   0  0
    6.3377    2.4840    1.8239 C   0  0
    5.0690    3.6255    1.5867 Cl  0  0
    7.0898   -1.5014    1.7073 Cl  0  0
    0.1517    0.2552   -1.0906 H   0  0
   -0.0827   -4.6912   -0.6516 H   0  0
    4.2729   -2.3900   -0.7761 H   0  0
    3.8455   -2.2267    0.9105 H   0  0
    2.4956   -4.1156    0.7505 H   0  0
    2.8804   -4.2528   -0.9610 H   0  0
   -3.5615   -1.7697   -2.5195 H   0  0
   -3.8668   -1.5892   -0.7799 H   0  0
   -4.1315    0.5671   -2.9372 H   0  0
   -5.4572   -0.1709   -2.0604 H   0  0
   -5.6576    0.3325    0.3944 H   0  0
   -3.9727    0.1176    0.8405 H   0  0
   -3.7387    2.4611    1.4088 H   0  0
   -5.3113    2.0680    2.0745 H   0  0
   -6.4453    3.0419    0.2203 H   0  0
   -5.0344    4.0691    0.2232 H   0  0
   -4.3068    3.0833   -1.7874 H   0  0
   -5.8499    2.2653   -1.8317 H   0  0
   -2.3210   -5.2480   -0.1577 H   0  0
   -3.6219   -5.1611   -1.3573 H   0  0
   -1.9552   -5.4167   -1.9027 H   0  0
    5.1564   -0.3225   -0.5873 H   0  0
    4.8096    1.3764   -0.6173 H   0  0
    3.9941    1.1675    1.8347 H   0  0
    4.6052   -0.4226    1.8606 H   0  0
    9.3485    0.0679    2.3408 H   0  0
    9.6656    2.4976    2.5843 H   0  0
    7.7800    4.0456    2.2523 H   0  0
  1  2  2  0
  1 32  1  0
  2  3  1  0
  2 10  1  0
  3  4  2  0
  3 18  1  0
  4  5  1  0
  4 33  1  0
  5  6  2  0
  5  9  1  0
  6  1  1  0
  6  7  1  0
  7  8  1  0
  7 20  1  0
  8  9  1  0
  8 34  1  0
  8 35  1  0
  9 36  1  0
  9 37  1  0
 10 11  1  0
 11 12  1  0
 11 38  1  0
 11 39  1  0
 12 13  1  0
 12 40  1  0
 12 41  1  0
 13 14  1  0
 13 17  1  0
 14 15  1  0
 14 42  1  0
 14 43  1  0
 15 16  1  0
 15 44  1  0
 15 45  1  0
 16 17  1  0
 16 46  1  0
 16 47  1  0
 17 48  1  0
 17 49  1  0
 18 19  1  0
 19 50  1  0
 19 51  1  0
 19 52  1  0
 20 21  2  0
 20 22  1  0
 22 23  1  0
 22 53  1  0
 22 54  1  0
 23 24  1  0
 23 55  1  0
 23 56  1  0
 24 25  2  0
 24 29  1  0
 25 26  1  0
 25 31  1  0
 26 27  2  0
 26 57  1  0
 27 28  1  0
 27 58  1  0
 28 29  2  0
 28 59  1  0
 29 30  1  0
M  END
> <Name>
5HT2c_ligand4

> <AbsoluteEnergy>
68.0047

> <ConfNumber>
5

> <FitValue>
3.52911

> <HBA_5>
1

> <HBA_5_atom>
10

> <HBA_5_fit>
0.898537

> <HBA_6>
1

> <HBA_6_atom>
21

> <HBA_6_fit>
0.829707

> <HYDROPHOBAromatic_2>
1

> <HYDROPHOBAromatic_2_atom>
.

> <HYDROPHOBAromatic_2_fit>
-0.938359

> <HYDROPHOBIC_3>
1

> <HYDROPHOBIC_3_atom>
5

> <HYDROPHOBIC_3_fit>
0.879364

> <HYDROPHOBIC_4>
1

> <HYDROPHOBIC_4_atom>
9

> <HYDROPHOBIC_4_fit>
0.890862

> <MapNumber>
1

> <MappedAtoms>
13,-4.09,1.367,-0.832,1.7,PosIonizable_1.11
5,2.88,-2.86,-0.22,1.7,HYDROPHOBIC_3.11
9,-2.08,-4.78,-0.94,1.7,HYDROPHOBIC_4.11
10,-1.714,-0.478,-1.133,1.7,HBA_5.11
10,-1.16,2.48,-1.34,2.3,HBA_5.21
21,3.104,1.058,-0.898,1.7,HBA_6.11
21,4.22,3.86,-0.78,2.3,HBA_6.21

> <MappedFeatures>
PosIonizable_1,HYDROPHOBAromatic_2,HYDROPHOBIC_3,HYDROPHOBIC_4,HBA_5,HBA_6

> <MappedLocations>
HBA_5.11,HBA_5.21,HBA_6.11,HBA_6.21,HYDROPHOBAromatic_2.11,HYDROPHOBIC_3.11,HYDROPHOBIC_4.11,PosIonizable_1.11

> <MappingID>
1

> <MaxOmitFeat>
0

> <OBJECTID>
9223372586613932034

> <Pharmprint>
'111111'

> <Pharmtype>
6

> <PosIonizable_1>
1

> <PosIonizable_1_atom>
13

> <PosIonizable_1_fit>
0.969

> <Principal>
2

> <RelativeEnergy>
1.21789

$$$$
5HT2c_ligand2
  SciTegic09262214453D

 62 65  0  0  0  0            999 V2000
    0.1573   -0.4548   -1.1923 C   0  0
    1.1908   -1.2034   -0.5877 C   0  0
    1.0965   -2.5654   -0.2878 C   0  0
   -0.1271   -3.1950   -0.6283 C   0  0
   -1.2051   -2.4941   -1.2482 C   0  0
   -1.0556   -1.0999   -1.5321 C   0  0
    2.3335   -3.1359    0.3559 C   0  0
    3.2172   -1.8816    0.5233 C   0  0
    2.5297   -0.7600   -0.1548 N   0  0
    3.1054    0.5233   -0.3711 C   0  0
    2.4867    1.3773   -0.9642 O   0  0
   -2.3586   -3.1161   -1.5744 O   0  0
   -2.5785   -4.5088   -1.3341 C   0  0
   -1.9816   -0.3019   -2.1158 O   0  0
   -3.3084   -0.7145   -2.4629 C   0  0
   -4.2457   -0.8279   -1.2357 C   0  0
   -4.3572    0.3988   -0.4264 N   0  0
   -3.2441    0.5956    0.5195 C   0  0
   -3.5279    1.7520    1.4878 C   0  0
   -3.8344    3.0454    0.7200 C   0  0
   -4.9934    2.7987   -0.2584 C   0  0
   -4.6919    1.6126   -1.1897 C   0  0
   -4.1490    4.1296    1.6450 N   0  0
    4.4664    0.8839    0.0859 C   0  0
    4.9571    0.6368    1.3216 C   0  0
    6.3573    0.9862    1.7851 C   0  0
    6.8883    0.4316    2.9803 C   0  0
    8.1909    0.7694    3.3976 C   0  0
    8.9742    1.6498    2.6383 C   0  0
    8.4601    2.2023    1.4570 C   0  0
    7.1618    1.8749    1.0348 C   0  0
    5.9978   -0.6674    3.9624 Cl  0  0
    0.2729    0.5974   -1.4008 H   0  0
   -0.2199   -4.2459   -0.4013 H   0  0
    2.1012   -3.6033    1.3026 H   0  0
    2.7899   -3.8665   -0.2964 H   0  0
    4.2014   -2.0335    0.1031 H   0  0
    3.3270   -1.6649    1.5745 H   0  0
   -2.5169   -4.7211   -0.2656 H   0  0
   -3.5758   -4.7697   -1.6852 H   0  0
   -1.8476   -5.1054   -1.8831 H   0  0
   -3.2767   -1.6266   -3.0580 H   0  0
   -3.7058    0.0396   -3.1421 H   0  0
   -3.9491   -1.6521   -0.5891 H   0  0
   -5.2411   -1.0909   -1.5925 H   0  0
   -3.0736   -0.3207    1.0851 H   0  0
   -2.3288    0.8167   -0.0252 H   0  0
   -2.6688    1.8964    2.1437 H   0  0
   -4.3684    1.4882    2.1303 H   0  0
   -2.9496    3.3300    0.1469 H   0  0
   -5.1818    3.6917   -0.8544 H   0  0
   -5.9116    2.5964    0.2945 H   0  0
   -5.5563    1.4174   -1.8255 H   0  0
   -3.8608    1.8730   -1.8472 H   0  0
   -4.3236    4.9931    1.1087 H   0  0
   -3.3397    4.2959    2.2608 H   0  0
    5.0718    1.3870   -0.6524 H   0  0
    4.2904    0.1577    2.0194 H   0  0
    8.6050    0.3547    4.3055 H   0  0
    9.9729    1.9038    2.9636 H   0  0
    9.0636    2.8809    0.8721 H   0  0
    6.8031    2.3281    0.1236 H   0  0
  1  2  2  0
  1 33  1  0
  2  3  1  0
  2  9  1  0
  3  4  2  0
  3  7  1  0
  4  5  1  0
  4 34  1  0
  5  6  2  0
  5 12  1  0
  6  1  1  0
  6 14  1  0
  7  8  1  0
  7 35  1  0
  7 36  1  0
  8  9  1  0
  8 37  1  0
  8 38  1  0
  9 10  1  0
 10 11  2  0
 10 24  1  0
 12 13  1  0
 13 39  1  0
 13 40  1  0
 13 41  1  0
 14 15  1  0
 15 16  1  0
 15 42  1  0
 15 43  1  0
 16 17  1  0
 16 44  1  0
 16 45  1  0
 17 18  1  0
 17 22  1  0
 18 19  1  0
 18 46  1  0
 18 47  1  0
 19 20  1  0
 19 48  1  0
 19 49  1  0
 20 21  1  0
 20 23  1  0
 20 50  1  0
 21 22  1  0
 21 51  1  0
 21 52  1  0
 22 53  1  0
 22 54  1  0
 23 55  1  0
 23 56  1  0
 24 25  2  0
 24 57  1  0
 25 26  1  0
 25 58  1  0
 26 27  2  0
 26 31  1  0
 27 28  1  0
 27 32  1  0
 28 29  2  0
 28 59  1  0
 29 30  1  0
 29 60  1  0
 30 31  2  0
 30 61  1  0
 31 62  1  0
M  END
> <Name>
5HT2c_ligand2

> <AbsoluteEnergy>
67.3817

> <ConfNumber>
13

> <FitValue>
3.00829

> <HBA_5>
1

> <HBA_5_atom>
14

> <HBA_5_fit>
0.633641

> <HBA_6>
1

> <HBA_6_atom>
11

> <HBA_6_fit>
0.848884

> <HYDROPHOBAromatic_2>
1

> <HYDROPHOBAromatic_2_atom>
.

> <HYDROPHOBAromatic_2_fit>
-0.656629

> <HYDROPHOBIC_3>
1

> <HYDROPHOBIC_3_atom>
18

> <HYDROPHOBIC_3_fit>
0.753573

> <HYDROPHOBIC_4>
1

> <HYDROPHOBIC_4_atom>
13

> <HYDROPHOBIC_4_fit>
0.834801

> <MapNumber>
1

> <MappedAtoms>
22,-4.09,1.367,-0.832,1.7,PosIonizable_1.11
18,2.88,-2.86,-0.22,1.7,HYDROPHOBIC_3.11
13,-2.08,-4.78,-0.94,1.7,HYDROPHOBIC_4.11
14,-1.714,-0.478,-1.133,1.7,HBA_5.11
14,-1.16,2.48,-1.34,2.3,HBA_5.21
11,3.104,1.058,-0.898,1.7,HBA_6.11
11,4.22,3.86,-0.78,2.3,HBA_6.21

> <MappedFeatures>
PosIonizable_1,HYDROPHOBAromatic_2,HYDROPHOBIC_3,HYDROPHOBIC_4,HBA_5,HBA_6

> <MappedLocations>
HBA_5.11,HBA_5.21,HBA_6.11,HBA_6.21,HYDROPHOBAromatic_2.11,HYDROPHOBIC_3.11,HYDROPHOBIC_4.11,PosIonizable_1.11

> <MappingID>
1

> <MaxOmitFeat>
0

> <OBJECTID>
9223372578023997442

> <Pharmprint>
'111111'

> <Pharmtype>
6

> <PosIonizable_1>
1

> <PosIonizable_1_atom>
22

> <PosIonizable_1_fit>
0.594017

> <Principal>
2

> <RelativeEnergy>
1.7087

$$$$
5HT2c_ligand3
  SciTegic09262214453D

 58 61  0  0  0  0            999 V2000
    0.7185   -3.8811   -0.4256 C   0  0
   -0.3321   -2.9958   -0.7652 C   0  0
   -0.1588   -1.6014   -0.5254 C   0  0
    1.0382   -1.1556    0.0699 C   0  0
    2.0780   -2.0445    0.4152 C   0  0
    1.9082   -3.4133    0.1486 C   0  0
   -1.4675   -3.4436   -1.2994 O   0  0
   -1.7008   -4.8325   -1.5640 C   0  0
   -1.0450   -0.6491   -0.8237 O   0  0
   -2.2957   -0.8981   -1.4792 C   0  0
   -2.9889    0.4290   -1.8467 C   0  0
   -3.4203    1.2538   -0.6996 N   0  0
   -3.8442    2.5936   -1.1549 C   0  0
   -4.2418    3.5078    0.0138 C   0  0
   -5.3382    2.8720    0.8698 C   0  0
   -4.9098    1.4675    1.3058 C   0  0
   -4.4729    0.6020    0.1093 C   0  0
    3.2432   -1.5865    1.0151 N   0  0
    3.9411   -2.2811    2.1058 C   0  0
    5.1367   -1.3821    2.4622 C   0  0
    5.0256   -0.2296    1.5650 N   0  0
    3.9261   -0.4002    0.7064 C   0  0
    3.6114    0.3760   -0.1694 O   0  0
    5.8644    0.8718    1.5912 C   0  0
    5.3062    2.1632    1.5032 C   0  0
    6.1251    3.2975    1.5288 C   0  0
    7.5210    3.1672    1.6519 C   0  0
    8.0993    1.8768    1.7535 C   0  0
    7.2673    0.7377    1.7162 C   0  0
    8.4573    4.6115    1.6731 Cl  0  0
    9.8044    1.6454    1.9248 Cl  0  0
    0.6315   -4.9426   -0.5976 H   0  0
    1.1452   -0.0964    0.2630 H   0  0
    2.6852   -4.1282    0.3808 H   0  0
   -1.6608   -5.4061   -0.6358 H   0  0
   -2.6953   -4.9430   -1.9952 H   0  0
   -0.9680   -5.2104   -2.2787 H   0  0
   -2.9240   -1.5235   -0.8449 H   0  0
   -2.1047   -1.4386   -2.4082 H   0  0
   -3.8530    0.2223   -2.4814 H   0  0
   -2.2975    1.0069   -2.4622 H   0  0
   -3.0319    3.0626   -1.7112 H   0  0
   -4.6845    2.4946   -1.8443 H   0  0
   -4.5822    4.4722   -0.3666 H   0  0
   -3.3662    3.7109    0.6332 H   0  0
   -6.2621    2.8099    0.2935 H   0  0
   -5.5502    3.4921    1.7410 H   0  0
   -5.7285    0.9802    1.8372 H   0  0
   -4.0842    1.5446    2.0156 H   0  0
   -4.1108   -0.3514    0.4916 H   0  0
   -5.3355    0.3848   -0.5218 H   0  0
    3.2789   -2.4132    2.9500 H   0  0
    4.2798   -3.2550    1.7823 H   0  0
    5.1026   -1.0624    3.4943 H   0  0
    6.0712   -1.8997    2.2929 H   0  0
    4.2378    2.3051    1.4169 H   0  0
    5.6679    4.2734    1.4527 H   0  0
    7.7053   -0.2493    1.7856 H   0  0
  1  2  2  0
  1 32  1  0
  2  3  1  0
  2  7  1  0
  3  4  2  0
  3  9  1  0
  4  5  1  0
  4 33  1  0
  5  6  2  0
  5 18  1  0
  6  1  1  0
  6 34  1  0
  7  8  1  0
  8 35  1  0
  8 36  1  0
  8 37  1  0
  9 10  1  0
 10 11  1  0
 10 38  1  0
 10 39  1  0
 11 12  1  0
 11 40  1  0
 11 41  1  0
 12 13  1  0
 12 17  1  0
 13 14  1  0
 13 42  1  0
 13 43  1  0
 14 15  1  0
 14 44  1  0
 14 45  1  0
 15 16  1  0
 15 46  1  0
 15 47  1  0
 16 17  1  0
 16 48  1  0
 16 49  1  0
 17 50  1  0
 17 51  1  0
 18 19  1  0
 18 22  1  0
 19 20  1  0
 19 52  1  0
 19 53  1  0
 20 21  1  0
 20 54  1  0
 20 55  1  0
 21 22  1  0
 21 24  1  0
 22 23  2  0
 24 25  2  0
 24 29  1  0
 25 26  1  0
 25 56  1  0
 26 27  2  0
 26 57  1  0
 27 28  1  0
 27 30  1  0
 28 29  2  0
 28 31  1  0
 29 58  1  0
M  END
> <Name>
5HT2c_ligand3

> <AbsoluteEnergy>
51.2098

> <ConfNumber>
19

> <FitValue>
2.75367

> <HBA_5>
1

> <HBA_5_atom>
9

> <HBA_5_fit>
0.684743

> <HBA_6>
1

> <HBA_6_atom>
23

> <HBA_6_fit>
0.141119

> <HYDROPHOBAromatic_2>
1

> <HYDROPHOBAromatic_2_atom>
.

> <HYDROPHOBAromatic_2_fit>
0.563052

> <HYDROPHOBIC_3>
1

> <HYDROPHOBIC_3_atom>
19

> <HYDROPHOBIC_3_fit>
-0.284102

> <HYDROPHOBIC_4>
1

> <HYDROPHOBIC_4_atom>
.

> <HYDROPHOBIC_4_fit>
0.814546

> <MapNumber>
1

> <MappedAtoms>
12,-4.09,1.367,-0.832,1.7,PosIonizable_1.11
19,2.88,-2.86,-0.22,1.7,HYDROPHOBIC_3.11
9,-1.714,-0.478,-1.133,1.7,HBA_5.11
9,-1.16,2.48,-1.34,2.3,HBA_5.21
23,3.104,1.058,-0.898,1.7,HBA_6.11
23,4.22,3.86,-0.78,2.3,HBA_6.21

> <MappedFeatures>
PosIonizable_1,HYDROPHOBAromatic_2,HYDROPHOBIC_3,HYDROPHOBIC_4,HBA_5,HBA_6

> <MappedLocations>
HBA_5.11,HBA_5.21,HBA_6.11,HBA_6.21,HYDROPHOBAromatic_2.11,HYDROPHOBIC_3.11,HYDROPHOBIC_4.11,PosIonizable_1.11

> <MappingID>
1

> <MaxOmitFeat>
0

> <OBJECTID>
9223372582318964738

> <Pharmprint>
'111111'

> <Pharmtype>
6

> <PosIonizable_1>
1

> <PosIonizable_1_atom>
12

> <PosIonizable_1_fit>
0.834313

> <Principal>
2

> <RelativeEnergy>
3.16584

$$$$
5HT2c_ligand5
  SciTegic09262214453D

 57 60  0  0  0  0            999 V2000
    1.0838   -1.0143    0.1425 C   0  0
   -0.2001   -1.4614   -0.2440 C   0  0
   -0.3816   -2.8282   -0.5939 C   0  0
    0.7327   -3.6948   -0.5601 C   0  0
    1.9957   -3.2348   -0.1715 C   0  0
    2.1911   -1.8906    0.2021 C   0  0
   -1.5892   -3.2626   -0.9466 O   0  0
   -1.8532   -4.6196   -1.3179 C   0  0
   -1.1707   -0.5443   -0.2439 O   0  0
   -2.5671   -0.8694   -0.3409 C   0  0
   -3.4341    0.3933   -0.1656 C   0  0
   -4.0439    0.8614   -1.4246 N   0  0
   -3.0340    1.2743   -2.4175 C   0  0
   -3.6880    1.6608   -3.7552 C   0  0
   -4.7655    2.7354   -3.5700 C   0  0
   -5.7640    2.3105   -2.4879 C   0  0
   -5.0478    1.9139   -1.1867 C   0  0
    3.4501   -1.4743    0.6329 N   0  0
    4.0261   -0.1879    0.5147 C   0  0
    5.3591   -0.2288    1.1436 C   0  0
    5.5834   -1.4734    1.6007 C   0  0
    4.4043   -2.3670    1.3117 C   0  0
    3.4926    0.7576   -0.0188 O   0  0
    6.3391    0.9222    1.2767 C   0  0
    7.6794    0.6813    1.6485 C   0  0
    8.5872    1.7418    1.7911 C   0  0
    8.1768    3.0671    1.5653 C   0  0
    6.8377    3.3253    1.1847 C   0  0
    5.9352    2.2531    1.0399 C   0  0
    9.3410    4.3206    1.7674 Cl  0  0
    6.2566    4.9202    0.8911 Cl  0  0
    1.1973    0.0275    0.4015 H   0  0
    0.6353   -4.7350   -0.8327 H   0  0
    2.8091   -3.9455   -0.1655 H   0  0
   -1.2743   -4.8869   -2.2025 H   0  0
   -2.9132   -4.7170   -1.5549 H   0  0
   -1.6196   -5.2919   -0.4911 H   0  0
   -2.7754   -1.3446   -1.3007 H   0  0
   -2.8098   -1.5793    0.4525 H   0  0
   -4.2345    0.1586    0.5380 H   0  0
   -2.8598    1.2002    0.2932 H   0  0
   -2.3253    0.4658   -2.5927 H   0  0
   -2.4616    2.1154   -2.0236 H   0  0
   -2.9282    2.0138   -4.4523 H   0  0
   -4.1339    0.7756   -4.2087 H   0  0
   -4.2960    3.6766   -3.2831 H   0  0
   -5.2845    2.9184   -4.5112 H   0  0
   -6.4704    3.1180   -2.2939 H   0  0
   -6.3535    1.4663   -2.8489 H   0  0
   -5.7875    1.5595   -0.4675 H   0  0
   -4.5658    2.7855   -0.7430 H   0  0
    6.4659   -1.8323    2.1087 H   0  0
    3.9872   -2.7609    2.2277 H   0  0
    4.7095   -3.1847    0.6745 H   0  0
    8.0368   -0.3213    1.8305 H   0  0
    9.6065    1.5200    2.0768 H   0  0
    4.9187    2.4681    0.7471 H   0  0
  1  2  2  0
  1 32  1  0
  2  3  1  0
  2  9  1  0
  3  4  2  0
  3  7  1  0
  4  5  1  0
  4 33  1  0
  5  6  2  0
  5 34  1  0
  6  1  1  0
  6 18  1  0
  7  8  1  0
  8 35  1  0
  8 36  1  0
  8 37  1  0
  9 10  1  0
 10 11  1  0
 10 38  1  0
 10 39  1  0
 11 12  1  0
 11 40  1  0
 11 41  1  0
 12 13  1  0
 12 17  1  0
 13 14  1  0
 13 42  1  0
 13 43  1  0
 14 15  1  0
 14 44  1  0
 14 45  1  0
 15 16  1  0
 15 46  1  0
 15 47  1  0
 16 17  1  0
 16 48  1  0
 16 49  1  0
 17 50  1  0
 17 51  1  0
 18 19  1  0
 18 22  1  0
 19 20  1  0
 19 23  2  0
 20 21  2  0
 20 24  1  0
 21 22  1  0
 21 52  1  0
 22 53  1  0
 22 54  1  0
 24 25  2  0
 24 29  1  0
 25 26  1  0
 25 55  1  0
 26 27  2  0
 26 56  1  0
 27 28  1  0
 27 30  1  0
 28 29  2  0
 28 31  1  0
 29 57  1  0
M  END
> <Name>
5HT2c_ligand5

> <AbsoluteEnergy>
56.6803

> <ConfNumber>
23

> <FitValue>
2.61988

> <HBA_5>
1

> <HBA_5_atom>
9

> <HBA_5_fit>
0.592265

> <HBA_6>
1

> <HBA_6_atom>
23

> <HBA_6_fit>
0.343039

> <HYDROPHOBAromatic_2>
1

> <HYDROPHOBAromatic_2_atom>
24

> <HYDROPHOBAromatic_2_fit>
0.156567

> <HYDROPHOBIC_3>
1

> <HYDROPHOBIC_3_atom>
5

> <HYDROPHOBIC_3_fit>
-0.185206

> <HYDROPHOBIC_4>
1

> <HYDROPHOBIC_4_atom>
8

> <HYDROPHOBIC_4_fit>
0.923896

> <MapNumber>
1

> <MappedAtoms>
12,-4.09,1.367,-0.832,1.7,PosIonizable_1.11
24,6.02,1.26,1.58,1.7,HYDROPHOBAromatic_2.11
5,2.88,-2.86,-0.22,1.7,HYDROPHOBIC_3.11
8,-2.08,-4.78,-0.94,1.7,HYDROPHOBIC_4.11
9,-1.714,-0.478,-1.133,1.7,HBA_5.11
9,-1.16,2.48,-1.34,2.3,HBA_5.21
23,3.104,1.058,-0.898,1.7,HBA_6.11
23,4.22,3.86,-0.78,2.3,HBA_6.21

> <MappedFeatures>
PosIonizable_1,HYDROPHOBAromatic_2,HYDROPHOBIC_3,HYDROPHOBIC_4,HBA_5,HBA_6

> <MappedLocations>
HBA_5.11,HBA_5.21,HBA_6.11,HBA_6.21,HYDROPHOBAromatic_2.11,HYDROPHOBIC_3.11,HYDROPHOBIC_4.11,PosIonizable_1.11

> <MappingID>
1

> <MaxOmitFeat>
0

> <OBJECTID>
9223372590908899330

> <Pharmprint>
'111111'

> <Pharmtype>
6

> <PosIonizable_1>
1

> <PosIonizable_1_atom>
12

> <PosIonizable_1_fit>
0.789319

> <Principal>
2

> <RelativeEnergy>
5.34905

$$$$
