5HT2c_ligand2
  SciTegic09262214453D

 62 65  0  0  0  0            999 V2000
   -0.4682    1.6838    0.2909 C   0  0
   -1.7814    1.6260   -0.2165 C   0  0
   -2.3515    2.5943   -1.0490 C   0  0
   -1.4962    3.6665   -1.4220 C   0  0
   -0.1340    3.7364   -0.9985 C   0  0
    0.3860    2.7340   -0.1351 C   0  0
   -3.7858    2.3044   -1.4197 C   0  0
   -4.0120    0.9136   -0.7814 C   0  0
   -2.7878    0.5651   -0.0355 N   0  0
   -2.6169   -0.6399    0.6979 C   0  0
   -1.6116   -0.8272    1.3421 O   0  0
    0.7062    4.7216   -1.3896 O   0  0
    0.3022    5.7489   -2.2991 C   0  0
    1.6932    2.8071    0.2104 O   0  0
    2.2574    2.0324    1.2801 C   0  0
    3.7833    1.9220    1.1192 C   0  0
    4.1415    0.7079    0.3624 N   0  0
    3.8348    0.7839   -1.0764 C   0  0
    4.0580   -0.5752   -1.7613 C   0  0
    5.4779   -1.1151   -1.5197 C   0  0
    5.7976   -1.0992   -0.0168 C   0  0
    5.5264    0.2780    0.6101 C   0  0
    5.6141   -2.4695   -2.0586 N   0  0
   -3.6473   -1.7005    0.6620 C   0  0
   -3.5594   -2.8395    1.3824 C   0  0
   -4.4879   -4.0088    1.1873 C   0  0
   -4.7488   -4.5620   -0.0953 C   0  0
   -5.6483   -5.6375   -0.2213 C   0  0
   -6.2719   -6.1778    0.9143 C   0  0
   -5.9921   -5.6526    2.1858 C   0  0
   -5.1016   -4.5761    2.3208 C   0  0
   -3.9812   -3.9804   -1.5239 Cl  0  0
   -0.1321    0.9277    0.9757 H   0  0
   -1.9122    4.4375   -2.0527 H   0  0
   -4.4473    3.0511   -1.0033 H   0  0
   -3.9143    2.2818   -2.4916 H   0  0
   -4.1916    0.1737   -1.5493 H   0  0
   -4.8637    0.9210   -0.1150 H   0  0
   -0.5114    6.3347   -1.8689 H   0  0
    1.1523    6.4079   -2.4816 H   0  0
   -0.0095    5.3103   -3.2495 H   0  0
    1.8531    1.0205    1.3059 H   0  0
    1.9961    2.5183    2.2208 H   0  0
    4.2248    1.8655    2.1159 H   0  0
    4.2044    2.8075    0.6421 H   0  0
    2.7959    1.0805   -1.2185 H   0  0
    4.4549    1.5523   -1.5437 H   0  0
    3.8705   -0.4797   -2.8311 H   0  0
    3.3239   -1.2875   -1.3819 H   0  0
    6.1899   -0.4647   -2.0322 H   0  0
    6.8386   -1.3789    0.1493 H   0  0
    5.1936   -1.8487    0.4975 H   0  0
    5.7069    0.2175    1.6840 H   0  0
    6.2185    1.0213    0.2098 H   0  0
    6.5750   -2.8040   -1.8965 H   0  0
    5.4516   -2.4480   -3.0765 H   0  0
   -4.5016   -1.5663    0.0145 H   0  0
   -2.7871   -2.9268    2.1359 H   0  0
   -5.8639   -6.0622   -1.1928 H   0  0
   -6.9663   -6.9984    0.8085 H   0  0
   -6.4648   -6.0776    3.0595 H   0  0
   -4.8940   -4.1825    3.3053 H   0  0
  1  2  2  0
  1 33  1  0
  2  3  1  0
  2  9  1  0
  3  4  2  0
  3  7  1  0
  4  5  1  0
  4 34  1  0
  5  6  2  0
  5 12  1  0
  6  1  1  0
  6 14  1  0
  7  8  1  0
  7 35  1  0
  7 36  1  0
  8  9  1  0
  8 37  1  0
  8 38  1  0
  9 10  1  0
 10 11  2  0
 10 24  1  0
 12 13  1  0
 13 39  1  0
 13 40  1  0
 13 41  1  0
 14 15  1  0
 15 16  1  0
 15 42  1  0
 15 43  1  0
 16 17  1  0
 16 44  1  0
 16 45  1  0
 17 18  1  0
 17 22  1  0
 18 19  1  0
 18 46  1  0
 18 47  1  0
 19 20  1  0
 19 48  1  0
 19 49  1  0
 20 21  1  0
 20 23  1  0
 20 50  1  0
 21 22  1  0
 21 51  1  0
 21 52  1  0
 22 53  1  0
 22 54  1  0
 23 55  1  0
 23 56  1  0
 24 25  2  0
 24 57  1  0
 25 26  1  0
 25 58  1  0
 26 27  2  0
 26 31  1  0
 27 28  1  0
 27 32  1  0
 28 29  2  0
 28 59  1  0
 29 30  1  0
 29 60  1  0
 30 31  2  0
 30 61  1  0
 31 62  1  0
M  END
> <Name>
5HT2c_ligand2

> <AbsoluteEnergy>
74.038

> <ConfNumber>
34

> <FitValue>
5.99977

> <HBA_5>
1

> <HBA_5_atom>
11

> <HBA_5_fit>
0.999982

> <HBA_6>
1

> <HBA_6_atom>
14

> <HBA_6_fit>
0.999911

> <HYDROPHOBAromatic_2>
1

> <HYDROPHOBAromatic_2_atom>
.

> <HYDROPHOBAromatic_2_fit>
0.999958

> <HYDROPHOBIC_3>
1

> <HYDROPHOBIC_3_atom>
18

> <HYDROPHOBIC_3_fit>
0.999981

> <HYDROPHOBIC_4>
1

> <HYDROPHOBIC_4_atom>
13

> <HYDROPHOBIC_4_fit>
0.999956

> <MapNumber>
1

> <MappedAtoms>
17,4.148,0.707,0.367,1.7,PosIonizable_1.11
18,-3.62,1.88,-1.14,1.7,HYDROPHOBIC_3.11
13,0.3,5.76,-2.3,1.7,HYDROPHOBIC_4.11
11,-1.605,-0.829,1.346,1.7,HBA_5.11
11,0.88,-1.3,2.94,2.3,HBA_5.21
14,1.699,2.805,0.211,1.7,HBA_6.11
14,3.5,4.68,-1.34,2.3,HBA_6.21

> <MappedFeatures>
PosIonizable_1,HYDROPHOBAromatic_2,HYDROPHOBIC_3,HYDROPHOBIC_4,HBA_5,HBA_6

> <MappedLocations>
HBA_5.11,HBA_5.21,HBA_6.11,HBA_6.21,HYDROPHOBAromatic_2.11,HYDROPHOBIC_3.11,HYDROPHOBIC_4.11,PosIonizable_1.11

> <MappingID>
1

> <MaxOmitFeat>
0

> <OBJECTID>
9223372578023997442

> <Pharmprint>
'111111'

> <Pharmtype>
6

> <PosIonizable_1>
1

> <PosIonizable_1_atom>
17

> <PosIonizable_1_fit>
0.999978

> <Principal>
2

> <RelativeEnergy>
8.36494

$$$$
5HT2c_ligand1
  SciTegic09262214453D

 76 80  0  0  0  0            999 V2000
   -0.7454    1.2199   -0.2729 C   0  0
   -2.1205    1.3260   -0.5902 C   0  0
   -2.6960    2.4371   -1.2203 C   0  0
   -1.8158    3.5026   -1.5385 C   0  0
   -0.4240    3.4504   -1.2397 C   0  0
    0.1139    2.3017   -0.6045 C   0  0
   -4.1770    2.3110   -1.4585 C   0  0
   -4.4798    0.9168   -0.8743 C   0  0
   -3.2111    0.3570   -0.3509 N   0  0
   -3.0927   -0.9177    0.2823 C   0  0
   -2.0112   -1.2876    0.6771 O   0  0
   -4.2273   -1.7105    0.4261 N   0  0
   -4.3294   -2.9666    1.0256 C   0  0
   -5.4801   -3.7419    0.7582 C   0  0
   -5.6425   -5.0147    1.3252 C   0  0
   -4.6596   -5.5485    2.1773 C   0  0
   -3.5054   -4.7839    2.4629 C   0  0
   -3.3496   -3.5041    1.8939 C   0  0
   -4.8571   -6.9137    2.7636 C   0  0
   -2.2710   -5.3816    3.5026 Cl  0  0
    0.4294    4.4570   -1.5353 O   0  0
   -0.0073    5.6625   -2.1697 C   0  0
    1.4407    2.3029   -0.3450 O   0  0
    2.1064    1.1962    0.2704 C   0  0
    3.5971    1.5488    0.4126 C   0  0
    4.4164    0.4782    1.0013 N   0  0
    4.5454   -0.7159    0.1497 C   0  0
    5.6064   -1.6779    0.7079 C   0  0
    5.3060   -2.0537    2.1717 C   0  0
    5.1242   -0.7797    3.0167 C   0  0
    4.0743    0.1568    2.3966 C   0  0
    6.3110   -2.9678    2.7582 N   0  0
    6.1656   -4.3625    2.3047 C   0  0
    7.0304   -5.3129    3.1483 C   0  0
    8.5000   -4.8783    3.1541 C   0  0
    8.6189   -3.4060    3.5630 C   0  0
    7.7137   -2.5103    2.7025 C   0  0
   -0.3540    0.3387    0.2100 H   0  0
   -2.2361    4.3710   -2.0227 H   0  0
   -4.7142    3.0935   -0.9422 H   0  0
   -4.3998    2.3672   -2.5145 H   0  0
   -4.8835    0.2646   -1.6361 H   0  0
   -5.2067    0.9889   -0.0775 H   0  0
   -5.0828   -1.3523    0.0473 H   0  0
   -6.2601   -3.3695    0.1083 H   0  0
   -6.5336   -5.5826    1.0987 H   0  0
   -2.4601   -2.9490    2.1485 H   0  0
   -4.8709   -6.8639    3.8530 H   0  0
   -5.7967   -7.3677    2.4440 H   0  0
   -4.0502   -7.5809    2.4580 H   0  0
   -0.7418    6.1726   -1.5438 H   0  0
    0.8523    6.3185   -2.3056 H   0  0
   -0.4350    5.4393   -3.1486 H   0  0
    1.9724    0.3117   -0.3543 H   0  0
    1.6578    1.0094    1.2476 H   0  0
    3.6998    2.4471    1.0226 H   0  0
    4.0043    1.8059   -0.5659 H   0  0
    3.5832   -1.2239    0.0796 H   0  0
    4.8249   -0.4163   -0.8609 H   0  0
    5.6503   -2.5718    0.0855 H   0  0
    6.5828   -1.1984    0.6324 H   0  0
    4.3412   -2.5646    2.1847 H   0  0
    6.0635   -0.2335    3.1016 H   0  0
    4.8269   -1.0422    4.0326 H   0  0
    3.0893   -0.3103    2.4356 H   0  0
    4.0177    1.0762    2.9805 H   0  0
    5.1212   -4.6685    2.3775 H   0  0
    6.4465   -4.4354    1.2531 H   0  0
    6.9445   -6.3315    2.7690 H   0  0
    6.6547   -5.3317    4.1725 H   0  0
    8.9231   -5.0137    2.1580 H   0  0
    9.0800   -5.5082    3.8288 H   0  0
    9.6558   -3.0795    3.4789 H   0  0
    8.3461   -3.2979    4.6135 H   0  0
    7.7929   -1.4828    3.0534 H   0  0
    8.0636   -2.5247    1.6698 H   0  0
  1  2  2  0
  1 38  1  0
  2  3  1  0
  2  9  1  0
  3  4  2  0
  3  7  1  0
  4  5  1  0
  4 39  1  0
  5  6  2  0
  5 21  1  0
  6  1  1  0
  6 23  1  0
  7  8  1  0
  7 40  1  0
  7 41  1  0
  8  9  1  0
  8 42  1  0
  8 43  1  0
  9 10  1  0
 10 11  2  0
 10 12  1  0
 12 13  1  0
 12 44  1  0
 13 14  2  0
 13 18  1  0
 14 15  1  0
 14 45  1  0
 15 16  2  0
 15 46  1  0
 16 17  1  0
 16 19  1  0
 17 18  2  0
 17 20  1  0
 18 47  1  0
 19 48  1  0
 19 49  1  0
 19 50  1  0
 21 22  1  0
 22 51  1  0
 22 52  1  0
 22 53  1  0
 23 24  1  0
 24 25  1  0
 24 54  1  0
 24 55  1  0
 25 26  1  0
 25 56  1  0
 25 57  1  0
 26 27  1  0
 26 31  1  0
 27 28  1  0
 27 58  1  0
 27 59  1  0
 28 29  1  0
 28 60  1  0
 28 61  1  0
 29 30  1  0
 29 32  1  0
 29 62  1  0
 30 31  1  0
 30 63  1  0
 30 64  1  0
 31 65  1  0
 31 66  1  0
 32 33  1  0
 32 37  1  0
 33 34  1  0
 33 67  1  0
 33 68  1  0
 34 35  1  0
 34 69  1  0
 34 70  1  0
 35 36  1  0
 35 71  1  0
 35 72  1  0
 36 37  1  0
 36 73  1  0
 36 74  1  0
 37 75  1  0
 37 76  1  0
M  END
> <Name>
5HT2c_ligand1

> <AbsoluteEnergy>
67.394

> <ConfNumber>
3

> <FitValue>
4.60986

> <HBA_5>
1

> <HBA_5_atom>
11

> <HBA_5_fit>
0.620349

> <HBA_6>
1

> <HBA_6_atom>
23

> <HBA_6_fit>
0.866293

> <HYDROPHOBAromatic_2>
1

> <HYDROPHOBAromatic_2_atom>
.

> <HYDROPHOBAromatic_2_fit>
0.372076

> <HYDROPHOBIC_3>
1

> <HYDROPHOBIC_3_atom>
22

> <HYDROPHOBIC_3_fit>
0.975247

> <HYDROPHOBIC_4>
1

> <HYDROPHOBIC_4_atom>
22

> <HYDROPHOBIC_4_fit>
0.958153

> <MapNumber>
1

> <MappedAtoms>
26,4.148,0.707,0.367,1.7,PosIonizable_1.11
22,-3.62,1.88,-1.14,1.7,HYDROPHOBIC_3.11
22,0.3,5.76,-2.3,1.7,HYDROPHOBIC_4.11
11,-1.605,-0.829,1.346,1.7,HBA_5.11
11,0.88,-1.3,2.94,2.3,HBA_5.21
23,1.699,2.805,0.211,1.7,HBA_6.11
23,3.5,4.68,-1.34,2.3,HBA_6.21

> <MappedFeatures>
PosIonizable_1,HYDROPHOBAromatic_2,HYDROPHOBIC_3,HYDROPHOBIC_4,HBA_5,HBA_6

> <MappedLocations>
HBA_5.11,HBA_5.21,HBA_6.11,HBA_6.21,HYDROPHOBAromatic_2.11,HYDROPHOBIC_3.11,HYDROPHOBIC_4.11,PosIonizable_1.11

> <MappingID>
1

> <MaxOmitFeat>
0

> <OBJECTID>
9223372599498833922

> <Pharmprint>
'111111'

> <Pharmtype>
6

> <PosIonizable_1>
1

> <PosIonizable_1_atom>
26

> <PosIonizable_1_fit>
0.817744

> <Principal>
2

> <RelativeEnergy>
0.313167

$$$$
5HT2c_ligand5
  SciTegic09262214453D

 57 60  0  0  0  0            999 V2000
   -1.0537    0.7338   -0.5386 C   0  0
   -0.2266    1.8766   -0.6321 C   0  0
   -0.7425    3.0617   -1.1932 C   0  0
   -2.0854    3.0927   -1.6328 C   0  0
   -2.9029    1.9579   -1.5198 C   0  0
   -2.3944    0.7626   -0.9733 C   0  0
    0.0721    4.1094   -1.2798 O   0  0
   -0.3378    5.3589   -1.8441 C   0  0
    1.0340    1.8916   -0.2061 O   0  0
    1.6264    0.7876    0.4893 C   0  0
    3.0631    1.1407    0.9084 C   0  0
    4.0555    0.9208   -0.1583 N   0  0
    5.4279    1.0784    0.3584 C   0  0
    6.4785    0.7208   -0.7033 C   0  0
    6.2760    1.5378   -1.9817 C   0  0
    4.8347    1.3921   -2.4765 C   0  0
    3.8190    1.7261   -1.3722 C   0  0
   -3.1976   -0.3643   -0.8710 N   0  0
   -3.2051   -1.2846    0.1975 C   0  0
   -4.1747   -2.3395   -0.1263 C   0  0
   -4.7466   -2.0559   -1.3115 C   0  0
   -4.1787   -0.7773   -1.8839 C   0  0
   -2.5226   -1.1875    1.1922 O   0  0
   -4.4858   -3.5557    0.7210 C   0  0
   -5.6675   -4.2941    0.5072 C   0  0
   -5.9568   -5.4251    1.2855 C   0  0
   -5.0718   -5.8414    2.2955 C   0  0
   -3.8807   -5.1094    2.5221 C   0  0
   -3.6002   -3.9764    1.7348 C   0  0
   -5.4894   -7.2382    3.2153 Cl  0  0
   -2.7412   -5.5531    3.7374 Cl  0  0
   -0.6509   -0.1803   -0.1280 H   0  0
   -2.5086    3.9871   -2.0632 H   0  0
   -3.9264    2.0246   -1.8607 H   0  0
   -0.6293    5.2238   -2.8876 H   0  0
    0.5028    6.0513   -1.8050 H   0  0
   -1.1650    5.7804   -1.2709 H   0  0
    1.0332    0.5842    1.3839 H   0  0
    1.6114   -0.1031   -0.1413 H   0  0
    3.1147    2.1727    1.2575 H   0  0
    3.3261    0.5126    1.7600 H   0  0
    5.5675    0.4353    1.2290 H   0  0
    5.5735    2.1059    0.6961 H   0  0
    7.4802    0.8873   -0.3091 H   0  0
    6.4103   -0.3427   -0.9373 H   0  0
    6.4883    2.5891   -1.7808 H   0  0
    6.9775    1.2184   -2.7529 H   0  0
    4.6697    2.0336   -3.3421 H   0  0
    4.6735    0.3682   -2.8169 H   0  0
    2.8205    1.5289   -1.7610 H   0  0
    3.8653    2.7871   -1.1214 H   0  0
   -5.5050   -2.6347   -1.8166 H   0  0
   -4.9599   -0.0400   -2.0073 H   0  0
   -3.7036   -0.9597   -2.8376 H   0  0
   -6.3731   -4.0041   -0.2585 H   0  0
   -6.8710   -5.9703    1.0967 H   0  0
   -2.6868   -3.4305    1.9171 H   0  0
  1  2  2  0
  1 32  1  0
  2  3  1  0
  2  9  1  0
  3  4  2  0
  3  7  1  0
  4  5  1  0
  4 33  1  0
  5  6  2  0
  5 34  1  0
  6  1  1  0
  6 18  1  0
  7  8  1  0
  8 35  1  0
  8 36  1  0
  8 37  1  0
  9 10  1  0
 10 11  1  0
 10 38  1  0
 10 39  1  0
 11 12  1  0
 11 40  1  0
 11 41  1  0
 12 13  1  0
 12 17  1  0
 13 14  1  0
 13 42  1  0
 13 43  1  0
 14 15  1  0
 14 44  1  0
 14 45  1  0
 15 16  1  0
 15 46  1  0
 15 47  1  0
 16 17  1  0
 16 48  1  0
 16 49  1  0
 17 50  1  0
 17 51  1  0
 18 19  1  0
 18 22  1  0
 19 20  1  0
 19 23  2  0
 20 21  2  0
 20 24  1  0
 21 22  1  0
 21 52  1  0
 22 53  1  0
 22 54  1  0
 24 25  2  0
 24 29  1  0
 25 26  1  0
 25 55  1  0
 26 27  2  0
 26 56  1  0
 27 28  1  0
 27 30  1  0
 28 29  2  0
 28 31  1  0
 29 57  1  0
M  END
> <Name>
5HT2c_ligand5

> <AbsoluteEnergy>
52.2495

> <ConfNumber>
4

> <FitValue>
3.49209

> <HBA_5>
1

> <HBA_5_atom>
23

> <HBA_5_fit>
0.490804

> <HBA_6>
1

> <HBA_6_atom>
9

> <HBA_6_fit>
0.641169

> <HYDROPHOBAromatic_2>
1

> <HYDROPHOBAromatic_2_atom>
26

> <HYDROPHOBAromatic_2_fit>
0.83409

> <HYDROPHOBIC_3>
1

> <HYDROPHOBIC_3_atom>
5

> <HYDROPHOBIC_3_fit>
-0.0913662

> <HYDROPHOBIC_4>
1

> <HYDROPHOBIC_4_atom>
8

> <HYDROPHOBIC_4_fit>
0.731639

> <MapNumber>
1

> <MappedAtoms>
12,4.148,0.707,0.367,1.7,PosIonizable_1.11
26,-5.66,-5.4,1.26,1.7,HYDROPHOBAromatic_2.11
5,-3.62,1.88,-1.14,1.7,HYDROPHOBIC_3.11
8,0.3,5.76,-2.3,1.7,HYDROPHOBIC_4.11
23,-1.605,-0.829,1.346,1.7,HBA_5.11
23,0.88,-1.3,2.94,2.3,HBA_5.21
9,1.699,2.805,0.211,1.7,HBA_6.11
9,3.5,4.68,-1.34,2.3,HBA_6.21

> <MappedFeatures>
PosIonizable_1,HYDROPHOBAromatic_2,HYDROPHOBIC_3,HYDROPHOBIC_4,HBA_5,HBA_6

> <MappedLocations>
HBA_5.11,HBA_5.21,HBA_6.11,HBA_6.21,HYDROPHOBAromatic_2.11,HYDROPHOBIC_3.11,HYDROPHOBIC_4.11,PosIonizable_1.11

> <MappingID>
1

> <MaxOmitFeat>
0

> <OBJECTID>
9223372590908899330

> <Pharmprint>
'111111'

> <Pharmtype>
6

> <PosIonizable_1>
1

> <PosIonizable_1_atom>
12

> <PosIonizable_1_fit>
0.885749

> <Principal>
2

> <RelativeEnergy>
0.91818

$$$$
5HT2c_ligand6
  SciTegic09262214453D

 51 54  0  0  0  0            999 V2000
   -0.6135    0.8616   -0.0634 C   0  0
    0.1251    1.9709   -0.5855 C   0  0
   -0.5708    3.0482   -1.2136 C   0  0
   -1.9946    3.0137   -1.3147 C   0  0
   -2.6946    1.9080   -0.7802 C   0  0
   -2.0291    0.8692   -0.1761 C   0  0
   -3.0512    0.0071    0.2117 N   0  0
   -4.3148    0.5239   -0.1492 C   0  0
   -4.0468    1.7473   -0.7935 C   0  0
    0.1681    4.0754   -1.6924 O   0  0
   -0.4276    5.2122   -2.3263 C   0  0
    1.4758    2.0772   -0.5174 O   0  0
    2.3185    1.0834    0.0847 C   0  0
    3.7774    1.5929    0.0495 C   0  0
    4.7478    0.6966    0.7146 N   0  0
    5.0189   -0.5334   -0.0581 C   0  0
    5.9772   -1.4790    0.6882 C   0  0
    7.2823   -0.7754    1.0703 C   0  0
    6.9782    0.5159    1.8336 C   0  0
    5.9966    1.4087    1.0557 C   0  0
   -2.8517   -1.2309    0.9234 C   0  0
   -1.9202   -1.3641    1.6824 O   0  0
   -3.7849   -2.3620    0.7526 C   0  0
   -3.8074   -3.6885    1.8150 S   0  0
   -5.0733   -4.5203    1.0330 C   0  0
   -5.4732   -3.7538   -0.0807 C   0  0
   -4.7518   -2.5530   -0.2496 C   0  0
   -5.9002   -5.9969    1.3081 Cl  0  0
   -0.1111    0.0309    0.4089 H   0  0
   -2.5397    3.8179   -1.7894 H   0  0
   -5.2751    0.0652    0.0442 H   0  0
   -4.7815    2.4233   -1.2127 H   0  0
   -1.0962    5.7242   -1.6324 H   0  0
    0.3632    5.9034   -2.6215 H   0  0
   -0.9727    4.9036   -3.2201 H   0  0
    2.2100    0.1475   -0.4643 H   0  0
    2.0024    0.9219    1.1170 H   0  0
    3.7980    2.5680    0.5387 H   0  0
    4.0890    1.7662   -0.9818 H   0  0
    4.0859   -1.0597   -0.2547 H   0  0
    5.4436   -0.2672   -1.0267 H   0  0
    6.1957   -2.3521    0.0714 H   0  0
    5.4908   -1.8532    1.5897 H   0  0
    7.8497   -0.5414    0.1689 H   0  0
    7.9086   -1.4343    1.6725 H   0  0
    7.9030    1.0590    2.0279 H   0  0
    6.5546    0.2700    2.8086 H   0  0
    5.7623    2.2869    1.6594 H   0  0
    6.4698    1.7707    0.1418 H   0  0
   -6.2634   -4.0466   -0.7610 H   0  0
   -4.9498   -1.8853   -1.0768 H   0  0
  1  2  2  0
  1 29  1  0
  2  3  1  0
  2 12  1  0
  3  4  2  0
  3 10  1  0
  4  5  1  0
  4 30  1  0
  5  6  2  0
  5  9  1  0
  6  1  1  0
  6  7  1  0
  7  8  1  0
  7 21  1  0
  8  9  2  0
  8 31  1  0
  9 32  1  0
 10 11  1  0
 11 33  1  0
 11 34  1  0
 11 35  1  0
 12 13  1  0
 13 14  1  0
 13 36  1  0
 13 37  1  0
 14 15  1  0
 14 38  1  0
 14 39  1  0
 15 16  1  0
 15 20  1  0
 16 17  1  0
 16 40  1  0
 16 41  1  0
 17 18  1  0
 17 42  1  0
 17 43  1  0
 18 19  1  0
 18 44  1  0
 18 45  1  0
 19 20  1  0
 19 46  1  0
 19 47  1  0
 20 48  1  0
 20 49  1  0
 21 22  2  0
 21 23  1  0
 23 24  1  0
 23 27  2  0
 24 25  1  0
 25 26  2  0
 25 28  1  0
 26 27  1  0
 26 50  1  0
 27 51  1  0
M  END
> <Name>
5HT2c_ligand6

> <AbsoluteEnergy>
112.674

> <ConfNumber>
9

> <FitValue>
3.41309

> <HBA_5>
1

> <HBA_5_atom>
22

> <HBA_5_fit>
0.83941

> <HBA_6>
1

> <HBA_6_atom>
12

> <HBA_6_fit>
0.743726

> <HYDROPHOBAromatic_2>
1

> <HYDROPHOBAromatic_2_atom>
.

> <HYDROPHOBAromatic_2_fit>
-0.537925

> <HYDROPHOBIC_3>
1

> <HYDROPHOBIC_3_atom>
11

> <HYDROPHOBIC_3_fit>
0.82142

> <HYDROPHOBIC_4>
1

> <HYDROPHOBIC_4_atom>
5

> <HYDROPHOBIC_4_fit>
0.712768

> <MapNumber>
1

> <MappedAtoms>
15,4.148,0.707,0.367,1.7,PosIonizable_1.11
11,-3.62,1.88,-1.14,1.7,HYDROPHOBIC_3.11
5,0.3,5.76,-2.3,1.7,HYDROPHOBIC_4.11
22,-1.605,-0.829,1.346,1.7,HBA_5.11
22,0.88,-1.3,2.94,2.3,HBA_5.21
12,1.699,2.805,0.211,1.7,HBA_6.11
12,3.5,4.68,-1.34,2.3,HBA_6.21

> <MappedFeatures>
PosIonizable_1,HYDROPHOBAromatic_2,HYDROPHOBIC_3,HYDROPHOBIC_4,HBA_5,HBA_6

> <MappedLocations>
HBA_5.11,HBA_5.21,HBA_6.11,HBA_6.21,HYDROPHOBAromatic_2.11,HYDROPHOBIC_3.11,HYDROPHOBIC_4.11,PosIonizable_1.11

> <MappingID>
1

> <MaxOmitFeat>
0

> <OBJECTID>
9223372595203866626

> <Pharmprint>
'111111'

> <Pharmtype>
6

> <PosIonizable_1>
1

> <PosIonizable_1_atom>
15

> <PosIonizable_1_fit>
0.833686

> <Principal>
2

> <RelativeEnergy>
3.56851

$$$$
5HT2c_ligand3
  SciTegic09262214453D

 58 61  0  0  0  0            999 V2000
   -2.3103    3.2005   -1.6124 C   0  0
   -0.9217    3.2017   -1.3440 C   0  0
   -0.2852    1.9944   -0.9885 C   0  0
   -1.0470    0.8051   -0.9157 C   0  0
   -2.4300    0.8064   -1.1797 C   0  0
   -3.0570    2.0156   -1.5299 C   0  0
   -0.1755    4.3015   -1.4089 O   0  0
   -0.7185    5.5783   -1.7594 C   0  0
    1.0221    2.0265   -0.7323 O   0  0
    1.7565    0.8525   -0.3646 C   0  0
    3.2304    1.2209   -0.1142 C   0  0
    4.0644    0.0707    0.2801 N   0  0
    4.1877   -0.9613   -0.7644 C   0  0
    5.2185   -2.0321   -0.3730 C   0  0
    4.8943   -2.6477    0.9922 C   0  0
    4.7286   -1.5481    2.0462 C   0  0
    3.7101   -0.4885    1.5979 C   0  0
   -3.1537   -0.3711   -1.0985 N   0  0
   -4.0535   -0.8721   -2.1431 C   0  0
   -4.5828   -2.2138   -1.6053 C   0  0
   -3.9456   -2.3742   -0.2939 N   0  0
   -3.1278   -1.2692   -0.0214 C   0  0
   -2.4882   -1.1165    0.9961 O   0  0
   -4.1204   -3.4643    0.5380 C   0  0
   -5.4139   -3.9093    0.8768 C   0  0
   -5.5829   -5.0178    1.7230 C   0  0
   -4.4659   -5.6966    2.2439 C   0  0
   -3.1614   -5.2577    1.9086 C   0  0
   -3.0006   -4.1484    1.0566 C   0  0
   -4.7456   -7.0456    3.2786 Cl  0  0
   -1.7398   -6.0295    2.5023 Cl  0  0
   -2.8253    4.1092   -1.8863 H   0  0
   -0.5647   -0.1257   -0.6538 H   0  0
   -4.1179    2.0517   -1.7381 H   0  0
   -1.1425    5.5459   -2.7647 H   0  0
    0.0832    6.3163   -1.7427 H   0  0
   -1.4799    5.8755   -1.0371 H   0  0
    1.3094    0.4280    0.5347 H   0  0
    1.6804    0.1226   -1.1730 H   0  0
    3.6500    1.6717   -1.0146 H   0  0
    3.2890    1.9842    0.6614 H   0  0
    4.4836   -0.4963   -1.7056 H   0  0
    3.2183   -1.4355   -0.9311 H   0  0
    5.2538   -2.8119   -1.1341 H   0  0
    6.2126   -1.5846   -0.3430 H   0  0
    3.9722   -3.2267    0.9224 H   0  0
    5.6785   -3.3450    1.2907 H   0  0
    4.4189   -1.9851    2.9965 H   0  0
    5.6939   -1.0714    2.2272 H   0  0
    3.6702    0.3122    2.3368 H   0  0
    2.7171   -0.9368    1.5546 H   0  0
   -3.5143   -1.0029   -3.0704 H   0  0
   -4.8637   -0.1763   -2.3134 H   0  0
   -4.3111   -3.0338   -2.2570 H   0  0
   -5.6580   -2.1960   -1.5068 H   0  0
   -6.2915   -3.4068    0.4929 H   0  0
   -6.5861   -5.3379    1.9664 H   0  0
   -2.0027   -3.8171    0.7978 H   0  0
  1  2  2  0
  1 32  1  0
  2  3  1  0
  2  7  1  0
  3  4  2  0
  3  9  1  0
  4  5  1  0
  4 33  1  0
  5  6  2  0
  5 18  1  0
  6  1  1  0
  6 34  1  0
  7  8  1  0
  8 35  1  0
  8 36  1  0
  8 37  1  0
  9 10  1  0
 10 11  1  0
 10 38  1  0
 10 39  1  0
 11 12  1  0
 11 40  1  0
 11 41  1  0
 12 13  1  0
 12 17  1  0
 13 14  1  0
 13 42  1  0
 13 43  1  0
 14 15  1  0
 14 44  1  0
 14 45  1  0
 15 16  1  0
 15 46  1  0
 15 47  1  0
 16 17  1  0
 16 48  1  0
 16 49  1  0
 17 50  1  0
 17 51  1  0
 18 19  1  0
 18 22  1  0
 19 20  1  0
 19 52  1  0
 19 53  1  0
 20 21  1  0
 20 54  1  0
 20 55  1  0
 21 22  1  0
 21 24  1  0
 22 23  2  0
 24 25  2  0
 24 29  1  0
 25 26  1  0
 25 56  1  0
 26 27  2  0
 26 57  1  0
 27 28  1  0
 27 30  1  0
 28 29  2  0
 28 31  1  0
 29 58  1  0
M  END
> <Name>
5HT2c_ligand3

> <AbsoluteEnergy>
48.044

> <ConfNumber>
1

> <FitValue>
2.84516

> <HBA_5>
1

> <HBA_5_atom>
23

> <HBA_5_fit>
0.46657

> <HBA_6>
1

> <HBA_6_atom>
9

> <HBA_6_fit>
0.551644

> <HYDROPHOBAromatic_2>
1

> <HYDROPHOBAromatic_2_atom>
26

> <HYDROPHOBAromatic_2_fit>
0.462969

> <HYDROPHOBIC_3>
1

> <HYDROPHOBIC_3_atom>
6

> <HYDROPHOBIC_3_fit>
-0.0349074

> <HYDROPHOBIC_4>
1

> <HYDROPHOBIC_4_atom>
8

> <HYDROPHOBIC_4_fit>
0.544001

> <MapNumber>
1

> <MappedAtoms>
12,4.148,0.707,0.367,1.7,PosIonizable_1.11
26,-5.66,-5.4,1.26,1.7,HYDROPHOBAromatic_2.11
6,-3.62,1.88,-1.14,1.7,HYDROPHOBIC_3.11
8,0.3,5.76,-2.3,1.7,HYDROPHOBIC_4.11
23,-1.605,-0.829,1.346,1.7,HBA_5.11
23,0.88,-1.3,2.94,2.3,HBA_5.21
9,1.699,2.805,0.211,1.7,HBA_6.11
9,3.5,4.68,-1.34,2.3,HBA_6.21

> <MappedFeatures>
PosIonizable_1,HYDROPHOBAromatic_2,HYDROPHOBIC_3,HYDROPHOBIC_4,HBA_5,HBA_6

> <MappedLocations>
HBA_5.11,HBA_5.21,HBA_6.11,HBA_6.21,HYDROPHOBAromatic_2.11,HYDROPHOBIC_3.11,HYDROPHOBIC_4.11,PosIonizable_1.11

> <MappingID>
1

> <MaxOmitFeat>
0

> <OBJECTID>
9223372582318964738

> <Pharmprint>
'111111'

> <Pharmtype>
6

> <PosIonizable_1>
1

> <PosIonizable_1_atom>
12

> <PosIonizable_1_fit>
0.854885

> <Principal>
2

> <RelativeEnergy>
0

$$$$
5HT2c_ligand4
  SciTegic09262214453D

 59 62  0  0  0  0            999 V2000
   -0.1945    1.7150    0.0610 C   0  0
    0.5647    2.7779   -0.4722 C   0  0
   -0.0739    3.7371   -1.3205 C   0  0
   -1.4656    3.5902   -1.6075 C   0  0
   -2.2430    2.5234   -1.0835 C   0  0
   -1.5657    1.6211   -0.2600 C   0  0
   -2.5417    0.6045    0.1667 N   0  0
   -3.8555    0.8983   -0.4462 C   0  0
   -3.7020    2.1960   -1.2719 C   0  0
    1.8690    2.7805   -0.1167 O   0  0
    2.8176    3.7406   -0.5890 C   0  0
    4.1970    3.4170    0.0040 C   0  0
    4.6008    2.0315   -0.2657 N   0  0
    4.7495    1.6515   -1.6602 C   0  0
    5.4480    0.3014   -1.6104 C   0  0
    6.4593    0.5229   -0.4852 C   0  0
    5.8146    1.5849    0.4096 C   0  0
    0.6547    4.7559   -1.8289 O   0  0
    0.0877    5.7536   -2.6827 C   0  0
   -2.2725   -0.4884    1.0340 C   0  0
   -1.1841   -0.6593    1.5322 O   0  0
   -3.4153   -1.4386    1.3235 C   0  0
   -3.5832   -2.5026    0.2215 C   0  0
   -4.5044   -3.6181    0.6451 C   0  0
   -5.8980   -3.5471    0.3820 C   0  0
   -6.7420   -4.6062    0.7634 C   0  0
   -6.2187   -5.7320    1.4127 C   0  0
   -4.8473   -5.8065    1.6920 C   0  0
   -3.9883   -4.7573    1.3204 C   0  0
   -2.3190   -4.9129    1.7181 Cl  0  0
   -6.6207   -2.1901   -0.3951 Cl  0  0
    0.2862    0.9939    0.7032 H   0  0
   -1.9702    4.3014   -2.2435 H   0  0
   -4.6060    1.0221    0.3219 H   0  0
   -4.1620    0.0830   -1.0834 H   0  0
   -3.9283    2.0419   -2.3177 H   0  0
   -4.3224    2.9944   -0.8917 H   0  0
    2.5092    4.7394   -0.2765 H   0  0
    2.8555    3.7082   -1.6796 H   0  0
    4.1669    3.5724    1.0836 H   0  0
    4.9465    4.1020   -0.3938 H   0  0
    5.3589    2.3804   -2.1787 H   0  0
    3.7878    1.5962   -2.1490 H   0  0
    4.7466   -0.4778   -1.3433 H   0  0
    5.9128    0.0327   -2.5475 H   0  0
    7.3896    0.8949   -0.8897 H   0  0
    6.6756   -0.3907    0.0500 H   0  0
    5.5639    1.1973    1.3864 H   0  0
    6.4968    2.4132    0.5476 H   0  0
   -0.3069    5.2936   -3.5899 H   0  0
    0.8709    6.4591   -2.9626 H   0  0
   -0.6999    6.2956   -2.1584 H   0  0
   -4.3462   -0.8932    1.4859 H   0  0
   -3.2010   -1.9301    2.2738 H   0  0
   -2.6088   -2.9047   -0.0544 H   0  0
   -3.9292   -2.0472   -0.7052 H   0  0
   -7.8040   -4.5665    0.5634 H   0  0
   -6.8731   -6.5425    1.7000 H   0  0
   -4.4660   -6.6816    2.1986 H   0  0
  1  2  2  0
  1 32  1  0
  2  3  1  0
  2 10  1  0
  3  4  2  0
  3 18  1  0
  4  5  1  0
  4 33  1  0
  5  6  2  0
  5  9  1  0
  6  1  1  0
  6  7  1  0
  7  8  1  0
  7 20  1  0
  8  9  1  0
  8 34  1  0
  8 35  1  0
  9 36  1  0
  9 37  1  0
 10 11  1  0
 11 12  1  0
 11 38  1  0
 11 39  1  0
 12 13  1  0
 12 40  1  0
 12 41  1  0
 13 14  1  0
 13 17  1  0
 14 15  1  0
 14 42  1  0
 14 43  1  0
 15 16  1  0
 15 44  1  0
 15 45  1  0
 16 17  1  0
 16 46  1  0
 16 47  1  0
 17 48  1  0
 17 49  1  0
 18 19  1  0
 19 50  1  0
 19 51  1  0
 19 52  1  0
 20 21  2  0
 20 22  1  0
 22 23  1  0
 22 53  1  0
 22 54  1  0
 23 24  1  0
 23 55  1  0
 23 56  1  0
 24 25  2  0
 24 29  1  0
 25 26  1  0
 25 31  1  0
 26 27  2  0
 26 57  1  0
 27 28  1  0
 27 58  1  0
 28 29  2  0
 28 59  1  0
 29 30  1  0
M  END
> <Name>
5HT2c_ligand4

> <AbsoluteEnergy>
68.0047

> <ConfNumber>
5

> <FitValue>
1.98494

> <HBA_5>
1

> <HBA_5_atom>
21

> <HBA_5_fit>
0.428208

> <HBA_6>
1

> <HBA_6_atom>
10

> <HBA_6_fit>
-1.51296

> <HYDROPHOBAromatic_2>
1

> <HYDROPHOBAromatic_2_atom>
27

> <HYDROPHOBAromatic_2_fit>
0.987188

> <HYDROPHOBIC_3>
1

> <HYDROPHOBIC_3_atom>
9

> <HYDROPHOBIC_3_fit>
0.965307

> <HYDROPHOBIC_4>
1

> <HYDROPHOBIC_4_atom>
19

> <HYDROPHOBIC_4_fit>
0.933729

> <MapNumber>
1

> <MappedAtoms>
13,4.148,0.707,0.367,1.7,PosIonizable_1.11
27,-5.66,-5.4,1.26,1.7,HYDROPHOBAromatic_2.11
9,-3.62,1.88,-1.14,1.7,HYDROPHOBIC_3.11
19,0.3,5.76,-2.3,1.7,HYDROPHOBIC_4.11
21,-1.605,-0.829,1.346,1.7,HBA_5.11
21,0.88,-1.3,2.94,2.3,HBA_5.21
10,1.699,2.805,0.211,1.7,HBA_6.11
10,3.5,4.68,-1.34,2.3,HBA_6.21

> <MappedFeatures>
PosIonizable_1,HYDROPHOBAromatic_2,HYDROPHOBIC_3,HYDROPHOBIC_4,HBA_5,HBA_6

> <MappedLocations>
HBA_5.11,HBA_5.21,HBA_6.11,HBA_6.21,HYDROPHOBAromatic_2.11,HYDROPHOBIC_3.11,HYDROPHOBIC_4.11,PosIonizable_1.11

> <MappingID>
1

> <MaxOmitFeat>
0

> <OBJECTID>
9223372586613932034

> <Pharmprint>
'111111'

> <Pharmtype>
6

> <PosIonizable_1>
1

> <PosIonizable_1_atom>
13

> <PosIonizable_1_fit>
0.183474

> <Principal>
2

> <RelativeEnergy>
1.21789

$$$$
